LAMMPS (29 Oct 2020)
dimension          2
units              lj
atom_style         rheo
boundary           p p p
comm_modify        vel yes
newton off

##### Particle Generation #######
##################################

## Particle Lattice/Resolution Parameters
variable           L equal 10
variable           t_tot equal 250
# n is particle number density, depends on lattive
variable           nb equal 1    #number of basis atoms depends on lattice
variable           n equal 1/(0.05^2)
variable           del equal 0.05
lattice            sq 400
Lattice spacing in x,y,z = 0.05 0.05 0.05
# SPH Smoothing Kernel Length
variable           hd equal 3.5
variable           h3 equal 3.5*0.05

# create simulation box

variable           dz equal 0.1*0.05
region             box block 0 10 0 10 -0.005 0.005 units box
create_box         2 box #create a simulation box from the region box - with 2 types of atoms
Created orthogonal box = (0.0000000 0.0000000 -0.005) to (10.000000 10.000000 0.005)
#Create atoms in our whole simulation box
create_atoms       1 region box #creates atoms of type 1 within the box region
Created 40000 atoms

# Assign all particles of type 1 to a group fluid
group              fluid type 1
40000 atoms in group fluid
#group             wall type 2

##### End Particle Generation #######
##################################

#Now randomly displace in x and y up %20 of their spacing (sf)
variable           seed equal 135414
variable           dr equal 0.1*0.05
displace_atoms     fluid random 0.005 0.005 0 135414 units box
Displacing atoms ...

##### Setting Physical Parameters #######
##################################

# Potential parameters eta = 1, cs = 0 so force gives laplacian
variable           rho0 equal 1.0 #Equilibrium density P=cs^2(rho-rho0)
variable           mp equal 1/400
variable           cs equal 4.0 #speed of sound - for pressure EoS
variable           eta equal 0.01 #dynamic viscosity
variable           zeta equal 1 #artificial viscosity - stabilizing term
variable           Dr equal 0.05*0.175*4
#variable          D equal 1.0

# Set particle properties
mass               * 0.0025
set                group all phase 0
Setting atom values ...
  40000 settings made for phase
set                group all temp 1.0
Setting atom values ...
  40000 settings made for temp

variable           u0 equal 0.1

variable           uy atom  0.1*sin(2*PI*x/lx)*cos(2*PI*y/ly)
variable           ux atom -0.1*sin(2*PI*y/ly)*cos(2*PI*x/ly)
variable           d0 atom 1-0.1*0.1*1*0.25*(cos(4*PI*x/lx)+cos(4*PI*y/ly))/4/4

velocity           all set v_ux v_uy 0.0 units box
set                group all rho v_d0
Setting atom values ...
  40000 settings made for rho

##### Define Physical Equations #######
##################################

fix                1 all rheo 0.175 CRK0 0 shift
fix                2 all rheo/surface 0.175 1.5 10
fix                3 all rheo/viscosity constant 0.01

pair_style         rheo 0.175 artificial/visc 1 rho/damp 0.035
pair_coeff         * * 1 4

#Timestep
#Ensures that the timestep is smaller than values, as per CFL criteria
variable           dt_max equal  0.1*0.175/4/3

timestep           0.00145833333333333

variable           Nsteps equal round(250/0.00145833333333333)

##### Defining Output Setting #######
##################################

#Compute atom properties to output in dump file
compute            den all property/atom rho
compute            phase all property/atom phase
compute            eta all property/atom viscosity

#l log file output and output frequency
thermo             200
thermo_style       custom step time ke temp press
thermo_modify      norm no #report properties as extensive, not intensive (i.e. per mol)

#define a dump file
dump               1 all custom 200 1_0_20.atoms id type x y vx vy fx fy c_den c_phase f_rheo_chi_chi c_eta
dump               2 all netcdf 200 1_0_20.nc id type x y vx vy fx fy c_den c_phase f_rheo_chi_chi c_eta

#modify neighbor bin size based on the cutoff distance h3
variable           skin equal 0.2*0.175
neighbor           0.035 bin
neigh_modify       one 10000 #increase number of allowed neighbors

#run for n steps
run 171429
  update every 1 steps, delay 10 steps, check yes
Step Time KinEng Temp Press
0            0   0.25000344 6.2502422e-06 0.0026011914
Averages over the last 430 of 859 rows, steps 85800 to 171429:
KinEng Temp Press
0.0131928 3.29828e-07 0.00368105
Loop time of 7762.46 on 32 procs for 171429 steps with 40000 atoms
