LAMMPS (29 Oct 2020)
dimension          2
units              lj
atom_style         rheo
boundary           f s p
comm_modify        vel yes
newton off

## Particle Lattice/Resolution Parameters
variable           L equal 10
variable           t_tot equal 500
variable           nb equal 1    #number of basis atoms depends on lattice
variable           n equal 1/(0.2^2)
variable           del equal 0.2
variable           hd equal 3.5
variable           h3 equal 3.5*0.2
variable           dz equal 0.1*0.2

# create simulation box

# read_restart       restart_adj_param.857143
###########################
### COMMENT FOR RESTART ###

region             box block 0 20 -10 20 -0.02 0.02 units box
create_box         3 box
Created orthogonal box = (0.0000000 -10.000000 -0.02) to (20.000000 20.000000 0.02)
lattice            sq 25
Lattice spacing in x,y,z = 0.2 0.2 0.2

region             left_wall block 0 1 -8.99 20 -0.02 0.02 units box
region             right_wall block 19 20 -8.99 20 -0.02 0.02 units box
region             bot_wall block 0 20 -10 -9 -0.02 0.02 units box
region             interior block 1.01 8.99 -8.99 10 -0.02 0.02 units box
region             mid_wall block 9 10 -8.99 10 -0.02 0.02 units box
create_atoms       1 region interior
Created 3705 atoms
create_atoms       2 region left_wall
Created 870 atoms
create_atoms       2 region right_wall
Created 725 atoms
create_atoms       2 region bot_wall
Created 600 atoms
create_atoms       3 region mid_wall
Created 570 atoms

group              fluid type 1
3705 atoms in group fluid
group              stat_wall type 2
2195 atoms in group stat_wall
group              dyn_wall type 3
570 atoms in group dyn_wall
group              wall union stat_wall dyn_wall
2765 atoms in group wall

#Now randomly displace in x and y up %20 of their spacing (sf)
variable           seed equal 135414
variable           dr equal 0.1*0.2
displace_atoms     fluid random 0.02 0.02 0 135414 units box
Displacing atoms ...
### COMMENT FOR RESTART ###
###########################

# Potential parameters eta = 1, cs = 0 so force gives laplacian
variable           rho0 equal 1.0
variable           mp equal 1/25
variable           cs equal 1
variable           zeta equal 0.24
variable           D equal 1.0
variable	       kappa equal 1*1/0.04
variable           fext equal 1e-5/25
#Viscosity parameters
variable           eta equal 0.01
#(for a Herschel-Bulkley fluid - special case: power law)
variable           gd0 equal 1e-2
variable           npow equal 0.5
variable           K equal 0.01*0.01^(1-0.5)

# Set particle properties
mass               1 0.04
mass               2 0.04
mass               3 0.04

set                group all rho 1
Setting atom values ...
  6470 settings made for rho
set                group all phase 0
Setting atom values ...
  6470 settings made for phase
set                group wall phase 4
Setting atom values ...
  2765 settings made for phase

set                group all temp 1.0
Setting atom values ...
  6470 settings made for temp

#Integration and Kernel
fix                1 all rheo 0.7 CRK0 0 shift
fix                2 all rheo/viscosity constant 0.01
fix                3 all rheo/surface 0.7 1.5 25

fix                4 wall setforce 0.0 0.0 0.0
fix                5 fluid addforce 0.0 -1e-5 0.0
#fix                6 rig_dyn move linear 0.0 0.5 0.0

variable           Dr equal 0.5*0.7*1
pair_style         rheo 0.7 artificial/visc 0.24 rho/damp 0.35
pair_coeff         * * 1 1

#Timestep
variable           dt_max equal  0.1*0.7/1/3
timestep           0.0233333333333333
variable           Nsteps equal round(500/0.0233333333333333)

compute            den all property/atom rho
compute            phase all property/atom phase
compute            eta all property/atom viscosity

thermo             200
thermo_style       custom step time etotal temp press

thermo_modify      norm no
dump               1 all custom 500 static_test.atoms id type x y vx vy fx fy c_den c_phase c_eta #f_rheo_chi_chi
dump               2 all netcdf 500 static_test.nc id type x y z vx vy vz fx fy c_den c_phase c_eta #f_rheo_chi_chi
variable           skin equal 0.2*0.7
neighbor           0.14 bin
neigh_modify       one 5000
run                21429
  update every 1 steps, delay 10 steps, check yes
Step Time TotEng Temp Press
0            0            0            0            0
Averages over the last 55 of 109 rows, steps 10800 to 21429:
TotEng Temp Press
1.22084e-05 1.88722e-09 0.00060868
Loop time of 561.075 on 16 procs for 21429 steps with 6470 atoms

write_restart      restart_static
System init for write_restart ...
