LAMMPS (29 Oct 2020)
#################################################################################
# RHEO demo to study pipe solidification
#
#      A cylinderical pipe is created with cold walls and a warm fluid interior
#      A thermal expansion coefficient is applied using fix rheo/thermal which
#      causes a dip to appear as the fluid solidifies. At long times times, this
#      gets funky a bad damping term in the code. Revisit after it's fixed.
#
#################################################################################

#################################
###  General LAMMPS settings  ###
#################################

atom_style         rheo
dimension          3
boundary           p p s
units              lj
comm_modify        vel yes

#################################
###   Loading data files      ###
#################################

read_data          ./data_equilibrated
Reading data file ...
  orthogonal box = (0.0000000 0.0000000 0.0000000) to (31.748021 31.748021 31.748021)
  reading atoms ...
  32000 atoms
  reading velocities ...
  32000 velocities

region             outside cylinder z $(lx/2) $(ly/2) $(lx/2) EDGE EDGE side out units box
region             outside cylinder z 15.874010519682000719 $(ly/2) $(lx/2) EDGE EDGE side out units box
region             outside cylinder z 15.874010519682000719 15.874010519682000719 $(lx/2) EDGE EDGE side out units box
region             outside cylinder z 15.874010519682000719 15.874010519682000719 15.874010519682000719 EDGE EDGE side out units box
delete_atoms       region outside
Deleted 6872 atoms, new total = 25128

region             outside2 cylinder z $(lx/2) $(ly/2) $(lx/2-3.0) EDGE EDGE side out units box
region             outside2 cylinder z 15.874010519682000719 $(ly/2) $(lx/2-3.0) EDGE EDGE side out units box
region             outside2 cylinder z 15.874010519682000719 15.874010519682000719 $(lx/2-3.0) EDGE EDGE side out units box
region             outside2 cylinder z 15.874010519682000719 15.874010519682000719 12.874010519682000719 EDGE EDGE side out units box

region             base block EDGE EDGE EDGE EDGE EDGE 3.0 units box
group              base region base
2379 atoms in group base

region             walls union 2 outside2 base
group              walls region walls
10181 atoms in group walls
group              fluid subtract all walls
14947 atoms in group fluid

comm_modify        vel yes
change_box all     boundary p p s
Changing box ...
#################################
###  Setting atom properties  ###
#################################

variable	       rho0 equal 1.0
variable           n equal 1.0
variable           mp equal 1/1
mass               1 1

variable           h equal 3.0
variable           cs equal 1.0
variable           zeta equal 1.0

variable           eta equal 0.1
variable           D equal 0.01
variable	       kappa equal 0.01*1/1
variable           Dr equal 0.2*3*1

set                group all rho 1
Setting atom values ...
  25128 settings made for rho
set                group walls phase 4
Setting atom values ...
  10181 settings made for phase
#set                group walls temp 0.0
set                group walls temp 1.0
Setting atom values ...
  10181 settings made for temp
set                group fluid temp 1.0
Setting atom values ...
  14947 settings made for temp

velocity           all set 0.0 0.0 0.0

#################################
###   Setting interactions    ###
#################################

pair_style         hybrid/overlay rheo 3 artificial/visc 1 rho/damp 0.6 rheo/freeze
pair_coeff         * * rheo 1 1
pair_coeff         * * rheo/freeze 3 2.0 1.0 1.0 0.05 1.0

# to add thermal expansion to solid domains, there's a flag which can be added
# the pair coefficients then take 3 additional arguments corresponding to:
# 1) Texpand
# 2) The critical temperature of phase transition
# 3) Tscale
# A bond's length will scale by a factor of 1 + Texpand*((T-Tc)/Tscale) - will produce residual stress

#################################
###   Setting fixes           ###
#################################

fix               1 all rheo 3 Quintic 5 thermal shift
fix               2 all rheo/viscosity  constant 0.1
fix               3 fluid rheo/thermal conductivity constant 0.01 cv constant 1.0 Tfreeze constant 0.5 alpha constant 0.05

# Alternatively to apply thermal expansion to the fluid, add on a
# thermal expansion coefficient to fix rheo/thermal, alpha.
# This term simply shifts rho by 0.05*dT each timestep.

fix               4 walls setforce 0.0 0.0 0.0
fix               5 all rheo/surface 3 2.5 20
fix               6 all balance 1000 1.05 shift x 10 1.05
fix               7 fluid addforce 0.0 0.0 -5e-5 #~gravity

timestep 0.1

#################################
###   Output data & run       ###
#################################

thermo             100
thermo_style       custom step dt time ke pe press

compute            phase all property/atom phase
compute            rho all property/atom rho
compute            temp all property/atom temp
compute            nbond all property/atom i_rheo_freeze_nbond
dump               mydump all custom 100 ./pipe_solidification_dump/dump.* id x y z c_phase c_temp c_nbond c_rho

restart  10000 myrestart
run      10000
  update every 1 steps, delay 10 steps, check yes
Step Dt Time KinEng PotEng Press
0          0.1            0            0 -0.00033892499 0.0022989373
Averages over the last 51 of 101 rows, steps 5000 to 10000:
Dt KinEng PotEng Press
0.1 5.56826e-10 -0.000338925 0.00265985
Loop time of 738.03 on 32 procs for 10000 steps with 25128 atoms

set                group walls temp 0.0
Setting atom values ...
  10181 settings made for temp

run      50000
Step Dt Time KinEng PotEng Press
10000          0.1         1000 5.9382076e-10 -0.00033892499 0.0026557233
Averages over the last 157 of 314 rows, steps 25700 to 41300:
Dt KinEng PotEng Press
0.1 0.000145322 -0.000371437 0.00226769
ERROR on proc 0: Too many neighbor bins (src/nbin_standard.cpp:184)
