LAMMPS (29 Oct 2020)
dimension          2
units              lj
atom_style         rheo
boundary           p p p
comm_modify        vel yes
newton off

##### Particle Generation #######
##################################

## Particle Lattice/Resolution Parameters
variable           L equal 10
variable           ttot equal 500
# n is particle number density, depends on lattive
variable           nb equal 1    #number of basis atoms depends on lattice
variable           n equal 1/(0.1^2)
variable           del equal 0.1
lattice            sq 100
Lattice spacing in x,y,z = 0.1 0.1 0.1
# SPH Smoothing Kernel Length
variable           hd equal 3.5
variable           h3 equal 3.5*0.1

# create simulation box
#read_data           data.10
#read_restart         restart.20
#reset_timestep       10

variable           dz equal 0.1*0.1
region             box block 0 10 0 10 -0.01 0.01 units box
create_box         2 box #create a simulation box from the region box - with 2 types of atoms
Created orthogonal box = (0.0000000 0.0000000 -0.01) to (10.000000 10.000000 0.01)
#Create atoms in our whole simulation box
create_atoms       1 region box #creates atoms of type 1 within the box region
Created 10000 atoms

# Assign all particles of type 1 to a group fluid
group              fluid type 1
10000 atoms in group fluid
#group             wall type 2

##### End Particle Generation #######
##################################

#Now randomly displace in x and y up %20 of their spacing (sf)
variable           seed equal 135414
variable           dr equal 0.1*0.1
displace_atoms     fluid random 0.01 0.01 0 135414 units box
Displacing atoms ...

##### Setting Physical Parameters #######
##################################

# Potential parameters eta = 1, cs = 0 so force gives laplacian
variable           rho0 equal 1.0 #Equilibrium density P=cs^2(rho-rho0)
variable           mp equal 1/100
variable           cs equal 4.0 #speed of sound - for pressure EoS
variable           eta equal 0.01 #dynamic viscosity
variable           zeta equal 1 #artificial viscosity - stabilizing term
variable           Dr equal 0.05*0.35*4
#variable          D equal 1.0

# Set particle properties
mass               * 0.01
set                group all phase 0
Setting atom values ...
  10000 settings made for phase
set                group all temp 1.0
Setting atom values ...
  10000 settings made for temp

variable           u0 equal 0.1

variable           uy atom  0.1*sin(2*PI*x/lx)*cos(2*PI*y/ly)
variable           ux atom -0.1*sin(2*PI*y/ly)*cos(2*PI*x/ly)
variable           d0 atom 1-0.1*0.1*1*0.25*(cos(4*PI*x/lx)+cos(4*PI*y/ly))/4/4

velocity           all set v_ux v_uy 0.0 units box
set                group all rho v_d0
Setting atom values ...
  10000 settings made for rho

##### Define Physical Equations #######
##################################

fix                1 all rheo 0.35 CRK2 0 shift
fix                2 all rheo/surface 0.35
fix                3 all rheo/viscosity constant 0.01

pair_style         rheo 0.35 artificial/visc 1 rho/damp 0.07
pair_coeff         * * 1 4

#Timestep
#Ensures that the timestep is smaller than values, as per CFL criteria
variable           dt_max equal  0.1*3.5*0.1/4/3

timestep           0.00291666666666667

variable           Nsteps equal 500/dt

##### Defining Output Setting #######
##################################

#Compute atom properties to output in dump file
compute            den all property/atom rho
compute            phase all property/atom phase
compute            eta all property/atom viscosity

#l log file output and output frequency
thermo             200
thermo_style       custom step time ke temp press
thermo_modify      norm no #report properties as extensive, not intensive (i.e. per mol)

#define a dump file
dump               1 all custom 200 1_1_10.atoms id type x y vx vy fx fy c_den c_phase f_rheo_chi_chi c_eta
dump               2 all netcdf 200 1_1_10.nc id type x y vx vy fx fy c_den c_phase f_rheo_chi_chi c_eta
#dump_modify        1 append yes at -1 thermo yes

#modify neighbor bin size based on the cutoff distance h3
variable           skin equal 0.2*0.35
neighbor           0.07 bin
neigh_modify       one 10000 #increase number of allowed neighbors

#run for n steps
run 300000 #upto
  update every 1 steps, delay 10 steps, check yes
Step Time KinEng Temp Press
0            0   0.24998754 2.5001254e-05  0.002523589
Averages over the last 751 of 1501 rows, steps 150000 to 300000:
KinEng Temp Press
0.00296912 2.96942e-07 -6.38326e-05
Loop time of 4669.08 on 8 procs for 300000 steps with 10000 atoms

write_data  data.*
System init for write_data ...
write_restart restart.*
System init for write_restart ...
