LAMMPS (29 Oct 2020)
dimension          2
units              lj
atom_style         rheo
boundary           p p p
comm_modify        vel yes
newton off

##### Particle Generation #######
##################################

## Particle Lattice/Resolution Parameters
variable           L equal 10
variable           R equal 10/2
variable           t_tot equal 20
# n is particle number density, depends on lattive
variable           nb equal 1    #number of basis atoms depends on lattice
variable           n equal 1/(0.1^2)
variable           del equal 0.1
lattice            sq 100
Lattice spacing in x,y,z = 0.1 0.1 0.1
# SPH Smoothing Kernel Length
variable           hd equal 3.5
variable           h3 equal 3.5*0.1

# create simulation box

read_data           example_data_TG.txt
Reading data file ...
  orthogonal box = (0.0000000 0.0000000 -0.05) to (10.000000 10.000000 0.05)
  reading atoms ...
  400 atoms
  reading velocities ...
  400 velocities

# create_box         2 box #create a simulation box from the region box - with 2 types of atoms
# create_atoms       1 region cyl #creates atoms of type 1 within the box region

# Assign all particles of type 1 to a group fluid
group              fluid type 1 2
400 atoms in group fluid
#group             wall type 2

##### End Particle Generation #######
##################################

#Now randomly displace in x and y up %20 of their spacing (sf)
variable           seed equal 135414
variable           dr equal 0.1*0.1
displace_atoms     fluid random 0.01 0.01 0 135414 units box
Displacing atoms ...

##### Setting Physical Parameters #######
##################################

# Potential parameters eta = 1, cs = 0 so force gives laplacian
variable           rho0 equal 1.0 #Equilibrium density P=cs^2(rho-rho0)
variable           mp equal 1/100
variable           cs equal 4.0 #speed of sound - for pressure EoS
variable           eta equal 0.0 #dynamic viscosity
variable           zeta equal 1 #artificial viscosity - stabilizing term
variable           Dr equal 0.05*0.35*4
#variable          D equal 1.0

# Set particle properties
mass               * 0.01
set                group all phase 0
Setting atom values ...
  400 settings made for phase
set                group all temp 1.0
Setting atom values ...
  400 settings made for temp

# variable           u0 equal 0.1

# variable           sigma0 equal 0.1

#variable           Q_0 equal 1
variable           d0 atom 1

# velocity           all set v_ux v_uy 0.0 units box
set                group all rho v_d0
Setting atom values ...
  400 settings made for rho

##### Define Physical Equations #######
##################################

fix                1 all rheo 0.35 CRK2 50
fix                2 all rheo/surface 0.35 1.0 10
fix                3 all rheo/viscosity constant 0

pair_style         rheo 0.35 artificial/visc 1 rho/damp 0.07
pair_coeff         * * 1 4

#Timestep
#Ensures that the timestep is smaller than values, as per CFL criteria
variable           dt_max equal  0.1*0.35/4/3

timestep           0.00291666666666667

variable           Nsteps equal round(20/0.00291666666666667)

##### Defining Output Setting #######
##################################

#Compute atom properties to output in dump file
compute            den all property/atom rho
compute            phase all property/atom phase
compute            eta all property/atom viscosity
compute            surf all property/atom surface

#l log file output and output frequency
thermo             200
thermo_style       custom step time ke temp press
thermo_modify      norm no #report properties as extensive, not intensive (i.e. per mol)

#define a dump file
dump               1 all custom 200 0_5_2.atoms id type x y vx vy fx fy c_den c_phase f_rheo_chi_chi c_eta c_surf f_2[*]
dump               2 all netcdf 200 0_5_2.nc id type x y vx vy fx fy c_den c_phase f_rheo_chi_chi c_eta c_surf f_2[1] f_2[2]

#modify neighbor bin size based on the cutoff distance h3
variable           skin equal 0.2*0.35
neighbor           0.07 bin
neigh_modify       one 10000 #increase number of allowed neighbors

#run for n steps
minimize           0.0 1.0e-8 10000 100000
  update every 1 steps, delay 0 steps, check yes
Step Time KinEng Temp Press
0            0 0.00033917756 8.5006907e-07 3.8901777e-06
Loop time of 0.000676521 on 32 procs for 1 steps with 400 atoms

Minimization stats:
  Stopping criterion = linesearch alpha is zero
  Energy initial, next-to-last, final =
  Force two-norm initial, final = 0.00026838287 0.00026838287
  Force max component initial, final = 0.00011876335 0.00011876335
  Final line search alpha, max atom move = 0.125 1.4845418e-05
  Iterations, force evaluations = 1 4

run 6857
Step Time KinEng Temp Press
1            0 0.00033917756 8.5006907e-07 3.8515007e-06
Averages over the last 18 of 36 rows, steps 3600 to 6858:
KinEng Temp Press
0.000338481 8.48324e-07 3.38524e-06
Loop time of 0.958974 on 32 procs for 6857 steps with 400 atoms
