LAMMPS (29 Oct 2020)
dimension          2
units              lj
atom_style         rheo
boundary           s s p
comm_modify        vel yes
newton on

##### Particle Generation #######
##################################

## Particle Lattice/Resolution Parameters
variable           L equal 5 #Particle radius
variable           t_tot equal 15
# n is particle number density, depends on lattive
variable           nb equal 1    #number of basis atoms depends on lattice
variable           n equal 1/(0.1^2)
variable           del equal 0.1
lattice            sq 100
Lattice spacing in x,y,z = 0.1 0.1 0.1
# SPH Smoothing Kernel Length
variable           hd equal 3.5
variable           h3 equal 3.5*0.1

# create simulation box

variable           dz equal 0.1*0.1
region             box block -5 5 -5 5 -0.01 0.01 units box
create_box         2 box #create a simulation box from the region box - with 2 types of atoms
Created orthogonal box = (-5.0000000 -5.0000000 -0.01) to (5.0000000 5.0000000 0.01)
#Create atoms in our whole simulation box
region             cyl cylinder z 0 0 5 -0.01 0.01 units box
create_atoms       1 region cyl #creates atoms of type 1 within the box region
Created 7837 atoms

# Assign all particles of type 1 to a group fluid
group              fluid type 1
7837 atoms in group fluid
#group             wall type 2

##### End Particle Generation #######
##################################

#Now randomly displace in x and y up %20 of their spacing (sf)
variable           seed equal 135414
variable           dr equal 0.05*0.1
displace_atoms     fluid random 0.005 0.005 0 135414 units box
Displacing atoms ...

##### Setting Physical Parameters #######
##################################

# Potential parameters eta = 1, cs = 0 so force gives laplacian
variable           rho0 equal 1.0 #Equilibrium density P=cs^2(rho-rho0)
variable           mp equal 1/100
variable           cs equal 4 #speed of sound - for pressure EoS
variable           eta equal 0.0 #dynamic viscosity
variable           zeta equal 1 #artificial viscosity - stabilizing term
variable           Dr equal 0.05*0.35*4
#variable          D equal 1.0

# Set particle properties
mass               * 0.01
set                group all phase 0
Setting atom values ...
  7837 settings made for phase
set                group all temp 1.0
Setting atom values ...
  7837 settings made for temp

variable           sigma0 equal 0.05
variable           ux atom  0.05*x
variable           uy atom -0.05*y

variable           Q_0 equal 1
variable           d0 atom 1

velocity           all set v_ux v_uy 0.0 units box
set                group all rho v_d0
Setting atom values ...
  7837 settings made for rho

##### Define Physical Equations #######
##################################

fix                1 all rheo 0.35 Quintic 0 shift
fix                3 all rheo/viscosity constant 0

pair_style         rheo 0.35 artificial/visc 1 rho/damp 0.07
pair_coeff         * * 1 4

#Timestep
#Ensures that the timestep is smaller than values, as per CFL criteria
variable           dt_max equal  0.1*0.35/4/3

timestep           0.00291666666666667

variable           Nsteps equal round(15/0.00291666666666667)

##### Defining Output Setting #######
##################################

#Compute atom properties to output in dump file
compute            den all property/atom rho
compute            phase all property/atom phase
compute            eta all property/atom viscosity

#l log file output and output frequency
thermo             200
thermo_style       custom step time ke temp press
thermo_modify      norm no #report properties as extensive, not intensive (i.e. per mol)

#define a dump file
dump               1 all custom 200 0_5_10.atoms id type x y vx vy fx fy c_den c_phase f_rheo_chi_chi c_eta
dump               2 all netcdf 200 0_5_10.nc id type x y vx vy fx fy c_den c_phase f_rheo_chi_chi c_eta

#modify neighbor bin size based on the cutoff distance h3
variable           skin equal 0.2*0.35
neighbor           0.07 bin
neigh_modify       one 10000 #increase number of allowed neighbors

#run for n steps
run 5143
  update every 1 steps, delay 10 steps, check yes
Step Time KinEng Temp Press
0            0    1.2218827 0.00015593194  0.012469239
Averages over the last 14 of 27 rows, steps 2600 to 5143:
KinEng Temp Press
1.21333 0.00015484 0.0134404
Loop time of 28.2549 on 32 procs for 5143 steps with 7837 atoms
