LAMMPS (29 Oct 2020)
dimension          2
units              lj
atom_style         rheo
boundary           p p p
comm_modify        vel yes
newton off

## Particle Lattice/Resolution Parameters
variable           L equal 10
variable           nb equal 1    #number of basis atoms depends on lattice
variable           n equal 1/(0.25^2)
variable           del equal 0.25
variable           hd equal 4.5
variable           h3 equal 4.5*0.25
variable           dz equal 0.1*0.25

# create simulation box
region             box block 0 20 -10 10 -0.025 0.025 units box
create_box         2 box
Created orthogonal box = (0.0000000 -10.000000 -0.025) to (20.000000 10.000000 0.025)
lattice            sq 16
Lattice spacing in x,y,z = 0.25 0.25 0.25

region             topwall block INF INF  9 10 -0.025 0.025 units box
region             block   block INF INF -8.99 8.99 -0.025 0.025 units box
region             botwall block INF INF -10 -9 -0.025 0.025 units box

create_atoms       2 region topwall
Created 320 atoms
create_atoms       2 region botwall
Created 400 atoms
create_atoms       1 region block
Created 5680 atoms

group              fluid type 1
5680 atoms in group fluid
group              rig type 2
720 atoms in group rig

#Now randomly displace in x and y up %20 of their spacing (sf)
variable           seed equal 135414
variable           dr equal 0.1*0.25
displace_atoms     fluid random 0.025 0.025 0 135414 units box
Displacing atoms ...

# Potential parameters eta = 1, cs = 0 so force gives laplacian
variable           rho0 equal 1.0
variable           mp equal 1/16
variable           cs equal 5.0
variable           zeta equal 1
variable           D equal 1.0
variable	       kappa equal 1*1/0.0625
variable           fext equal 1e-2/16

#Viscosity parameters (for a Herschel-Bulkley fluid - special case: power law)
variable           eta equal 1
variable           gd0 equal 1e-3
variable           npow equal 0.5
variable           K equal 1*0.001^(1-0.5)

# Set particle properties
mass               1 0.0625
mass               2 0.0625
set                group all rho 1
Setting atom values ...
  6400 settings made for rho
set                group all phase 0
Setting atom values ...
  6400 settings made for phase
set                group rig phase 4
Setting atom values ...
  720 settings made for phase
set                group all temp 1.0
Setting atom values ...
  6400 settings made for temp

#velocity           fluid set 0.0 -1 0.0 units box

#Integration and Kernel
fix                1 all rheo 1.125 CRK2 0 shift
#power viscosity model Herschel-Bulkley fluid, with 3 parameters:
#conistency k, flow index n, yield shear stress tau_0
fix                2 all rheo/viscosity power 1 0.001 0.0316227766016838 0.5
fix                3 all rheo/surface 1.125 1.5 10

fix                4 rig setforce 0.0 0.0 0.0
fix                5 fluid setforce 0.000625 0.0 0.0

variable           Dr equal 0.2*1.125*5
pair_style         rheo 1.125 artificial/visc 1 rho/damp 1.125
pair_coeff         * * 1 5

#Timestep
variable           dt_max equal  0.1*1.125/5/3
variable           dx_max equal 1.125/100
timestep           0.0075

compute            den all property/atom rho
compute            phase all property/atom phase
compute            eta all property/atom viscosity

thermo             200
thermo_style       custom step time etotal temp press

thermo_modify      norm no
dump               1 all custom 200 test_1_2_4.atoms id type x y vx vy fx fy c_den c_phase f_rheo_chi_chi c_eta
dump               2 all netcdf 200 test_1_2_4.nc id type x y z vx vy vz fx fy c_den c_phase f_rheo_chi_chi c_eta

variable           skin equal 0.2*1.125
neighbor           0.225 bin
neigh_modify       one 5000
run 20000
  update every 1 steps, delay 10 steps, check yes
Step Time TotEng Temp Press
0            0            0            0            0
Averages over the last 51 of 101 rows, steps 10000 to 20000:
TotEng Temp Press
241.416 0.0377272 1.69982
Loop time of 514.68 on 32 procs for 20000 steps with 6400 atoms
