LAMMPS (29 Oct 2020)
dimension          2
units              lj
atom_style         rheo
boundary           p p p
comm_modify        vel yes
newton off

##### Particle Generation #######
##################################

## Particle Lattice/Resolution Parameters
variable           L equal 10
# n is particle number density, depends on lattive
variable           nb equal 1    #number of basis atoms depends on lattice
variable           n equal 1/(0.5^2)
variable           del equal 0.5
lattice            sq 4
Lattice spacing in x,y,z = 0.5 0.5 0.5

# SPH Smoothing Kernel Length
variable           hd equal 3.5
variable           h3 equal 3.5*0.5

# create simulation box
variable           dz equal 0.1*0.5
region             box block 0 10 -1.75 1.75 -0.05 0.05 units box
create_box         2 box #create a simulation box from the region box - with 2 types of atoms
Created orthogonal box = (0.0000000 -1.7500000 -0.05) to (10.000000 1.7500000 0.05)

#Create atoms in our whole simulation box
create_atoms       1 region box #creates atoms of type 1 within the box region
Created 140 atoms

# Assign all particles of type 1 to a group fluid

group              fluid type 1
140 atoms in group fluid
#group             wall type 2

##### End Particle Generation #######
##################################

#Now randomly displace in x and y up %20 of their spacing (sf)
variable           seed equal 135414
variable           dr equal 0.1*0.5
displace_atoms     fluid random 0.05 0.05 0 135414 units box
Displacing atoms ...

##### Setting Physical Parameters #######
##################################

# Potential parameters eta = 1, cs = 0 so force gives laplacian
variable           rho0 equal 1.0 #Equilibrium density P=cs^2(rho-rho0)
variable           mp equal 1/4
variable           cs equal 4.0 #speed of sound - for pressure EoS
variable           eta equal 0.01 #dynamic viscosity
variable           zeta equal 1 #artificial viscosity - stabilizing term
variable           Dr equal 0.05*1.75*4
#variable          D equal 1.0

# Set particle properties
mass               * 0.25
set                group all rho 1
Setting atom values ...
  140 settings made for rho
set                group all phase 0
Setting atom values ...
  140 settings made for phase
set                group all temp 1.0
Setting atom values ...
  140 settings made for temp

variable           u0 equal 0.1

variable           uy atom  0.1*sin(2*PI*x/lx)
velocity           all set 0.0 v_uy 0.0 units box

##### Define Physical Equations #######
##################################

fix                1 all rheo 1.75 CRK2 0
fix                2 all rheo/surface 1.75
fix                3 all rheo/viscosity constant 0.01

pair_style         rheo 1.75 artificial/visc 1 rho/damp 0.35
pair_coeff         * * 1 4

#Timestep
#Ensures that the timestep is smaller than values, as per CFL criteria
variable           dt_max equal  0.1*1.75/4/3
timestep           0.0145833333333333

##### Defining Output Setting #######
##################################

#Compute atom properties to output in dump file
compute            den all property/atom rho
compute            phase all property/atom phase
compute            eta all property/atom viscosity

#l log file output and output frequency
thermo             200
thermo_style       custom step time ke temp press
thermo_modify      norm no #report properties as extensive, not intensive (i.e. per mol)

#define a dump file
dump               1 all custom 200 0_1_2.atoms id type x y vx vy fx fy c_den c_phase f_rheo_chi_chi c_eta
dump               2 all netcdf 200 0_1_2.nc id type x y vx vy fx fy c_den c_phase f_rheo_chi_chi c_eta
#dump_modify        1 append yes at -1 thermo yes

#modify neighbor bin size based on the cutoff distance h3
variable           skin equal 0.2*1.75
neighbor           0.35 bin
neigh_modify       one 10000 #increase number of allowed neighbors

#run for n steps
run 50000
  update every 1 steps, delay 10 steps, check yes
Step Time KinEng Temp Press
0            0  0.087274204 0.00062787197  0.003490342
Averages over the last 126 of 251 rows, steps 25000 to 50000:
KinEng Temp Press
3.94127e-06 2.83544e-08 0.0152564
Loop time of 21.6298 on 4 procs for 50000 steps with 140 atoms
