LAMMPS (29 Oct 2020)
####################################################
## RHEO wall-debug branch, 3/28/2022              ##
## Run poiseuille inlet                           ##
####################################################

dimension          2
units              lj
atom_style         rheo
boundary           f f p
comm_modify        vel yes
newton off

############################################
## Particle Lattice/Resolution Parameters ##
############################################

variable           L equal 10
variable           nb equal 1    #number of basis atoms depends on lattice
variable           n equal 1/(0.2^2)
variable           del equal 0.2
variable           hd equal 3.5
variable           h3 equal 3.5*0.2
variable           dz equal 0.1*0.2

############################################
##              Create box                ##
############################################

read_data          data_initial
Reading data file ...
  orthogonal box = (0.0000000 -10.000000 -0.02) to (20.000000 10.000000 0.02)
  reading atoms ...
  10000 atoms
  reading velocities ...
  10000 velocities

###Create a cylinder
region             obstacle cylinder z 10 0 1 -0.02 0.02 units box
group              obstacle region obstacle
79 atoms in group obstacle
group              walls type 2
3100 atoms in group walls
group              rig union walls obstacle
3179 atoms in group rig
group              fluid subtract all rig
6821 atoms in group fluid
set                group rig type 2
Setting atom values ...
  3179 settings made for type
###
variable           strip_width equal $(lx/10)
variable           strip_width equal 2
change_box         all x final $(xlo) $(xhi+v_strip_width)
change_box         all x final 0 $(xhi+v_strip_width)
change_box         all x final 0 22
Changing box ...
  orthogonal box = (0.0000000 -10.000000 -0.02) to (22.000000 10.000000 0.02)
# Expand box to the right by a distance equal to the length inserted

# Shift atoms by same increment
displace_atoms     all move 2 0 0
Displacing atoms ...

############################################
##         Potential parameters           ##
############################################

variable           rho0 equal 1.0
variable           mp equal 1/25
variable           cs equal 1
variable           zeta equal 1
variable           D equal 1.0
variable	       kappa equal 1*1/0.04
variable           eta equal 0.1

variable           Dr equal 0.05*0.7*1
pair_style         rheo 0.7 artificial/visc 1 rho/damp 0.035
pair_coeff         * * 1 1

############################################
##         Particle Properties            ##
############################################

mass               1 0.04
mass               2 0.04
set                group all rho 1
Setting atom values ...
  10000 settings made for rho
set                group all phase 0
Setting atom values ...
  10000 settings made for phase
set                group rig phase 5
Setting atom values ...
  3179 settings made for phase
set                group all temp 1.0
Setting atom values ...
  10000 settings made for temp

velocity           all set 0 0 0

############################################
##         Integration and fixes          ##
############################################

#CFL criterion
variable           dt_max equal  0.1*0.7/1/3
# Redefine to a more "round" number
variable           fext equal 1e-5/25

fix                1 all rheo 0.7 CRK1 0 shift
fix                2 all rheo/viscosity constant 0.1
fix                3 rig setforce 0.0 0.0 0.0
fix                5 all rheo/inlet 0.7 data_inlet 2 $(v_strip_width/100)
fix                5 all rheo/inlet 0.7 data_inlet 2 0.020000000000000000416
# Args are file, width of insertion, velocity of inserted particles.
#
# Some requirements:
#  1) The width should be >= the kernel cutoff to avoid particles seeing a void
#  2) Lx/width must be an integer - inserted strips evenly divide read datafile
#  3) Lx*(dt*vx) must be an integer - strips are inserted on a discrete timestep
#  4) The y and z dimensions of the input data file need to match the box dimensions
#  5) xlo needs to be zero
# These requirements are ~fudged due to float artithmetic and can easily error
#
# In the future, I plan to generalize and remove (2) by letting strips straddle
# the PBC, (3) by alternatively requiring the strip length exceeds the kernel
# length by a buffer equal to the distance an inserted atom moves in a timestep,
# and (4)
#
# Note, fluid atoms within a region of 2x the inserted width move at a fixed v
# Solid atoms only have a buffer of 1x the inserted width (less worry with density
# evolution).
#
# Fluid atoms on the edge of the system (inserted width) have rho interpolate
# linearly from it's intial value value to 1.0 to reduce effects of seeing the void
# Shifting is also turned off
# Adhoc - can improve. Ideally we'd somehow extend valuse of atoms entering
# the buffer to the rest of the atoms in a buffer, but need to bin horizontally...
# Or create ghost atoms to mirror...

variable           skin equal 0.2*0.7
neighbor           0.14 bin
neigh_modify       one 5000

############################################
##            Output and run              ##
############################################

compute            den all property/atom rho
compute            phase all property/atom phase

dump               1 all custom 1000 dump/atomDump.* id type x y vx vy fx fy c_den c_phase

thermo             100
thermo_style       custom step time ke press
thermo_modify      norm no lost ignore

run                100000
Reading data file ...
  1 reading atoms ...
  update every 1 steps, delay 10 steps, check yes
Step Time KinEng Press
0            0            0            0
Averages over the last 501 of 1001 rows, steps 50000 to 100000:
KinEng Press
0.0410227 0.0300162
Loop time of 1813.82 on 48 procs for 100000 steps with 13292 atoms
